equ.pdb
 OpenBabel04251411013D

 38 41  0  0  1  0  0  0  0  0999 V2000
   10.6830   68.0160  -32.0610 C   0  0  0  0  0  0  0  0  0  0  0  0
   10.2820   68.9000  -31.2160 O   0  0  0  0  0  0  0  0  0  0  0  0
    9.8810   66.8960  -32.2230 C   0  0  0  0  0  0  0  0  0  0  0  0
   10.3090   65.9170  -33.1560 C   0  0  0  0  0  0  0  0  0  0  0  0
   11.5750   66.0980  -33.9200 C   0  0  0  0  0  0  0  0  0  0  0  0
   12.3360   67.2470  -33.7070 C   0  0  0  0  0  0  0  0  0  0  0  0
   11.8990   68.1880  -32.7980 C   0  0  0  0  0  0  0  0  0  0  0  0
    9.4820   64.7480  -33.3430 C   0  0  0  0  0  0  0  0  0  0  0  0
    9.9060   63.7590  -34.2980 C   0  0  0  0  0  0  0  0  0  0  0  0
   11.1260   63.9420  -35.0380 C   0  0  0  0  0  0  0  0  0  0  0  0
   11.9680   65.1020  -34.8500 C   0  0  0  0  0  0  0  0  0  0  0  0
   11.5080   62.9140  -36.0250 C   0  0  1  0  0  0  0  0  0  0  0  0
   13.0380   62.8330  -36.2480 C   0  0  2  0  0  0  0  0  0  0  0  0
   13.6370   64.2020  -36.6230 C   0  0  0  0  0  0  0  0  0  0  0  0
   13.2540   65.3180  -35.6100 C   0  0  0  0  0  0  0  0  0  0  0  0
   11.1650   61.4430  -35.7370 C   0  0  0  0  0  0  0  0  0  0  0  0
   11.7770   60.7780  -37.0290 C   0  0  0  0  0  0  0  0  0  0  0  0
   12.9970   61.7410  -37.2920 C   0  0  0  0  0  0  0  0  0  0  0  0
   13.7970   61.6470  -38.1890 O   0  0  0  0  0  0  0  0  0  0  0  0
   13.7920   62.2510  -35.0320 C   0  0  0  0  0  0  0  0  0  0  0  0
    9.4834   68.7685  -30.7439 H   0  0  0  0  0  0  0  0  0  0  0  0
    9.0075   66.7795  -31.6860 H   0  0  0  0  0  0  0  0  0  0  0  0
   13.2172   67.3918  -34.2242 H   0  0  0  0  0  0  0  0  0  0  0  0
   12.4632   69.0385  -32.6449 H   0  0  0  0  0  0  0  0  0  0  0  0
    8.6096   64.6252  -32.8056 H   0  0  0  0  0  0  0  0  0  0  0  0
    9.3327   62.9150  -34.4528 H   0  0  0  0  0  0  0  0  0  0  0  0
   10.9243   63.2740  -36.8463 H   0  0  0  0  0  0  0  0  0  0  0  0
   13.2775   64.4800  -37.5917 H   0  0  0  0  0  0  0  0  0  0  0  0
   14.7025   64.1045  -36.6114 H   0  0  0  0  0  0  0  0  0  0  0  0
   14.0472   65.4001  -34.8965 H   0  0  0  0  0  0  0  0  0  0  0  0
   13.1013   66.2011  -36.1945 H   0  0  0  0  0  0  0  0  0  0  0  0
   10.1090   61.2850  -35.6683 H   0  0  0  0  0  0  0  0  0  0  0  0
   11.5352   61.0615  -34.8084 H   0  0  0  0  0  0  0  0  0  0  0  0
   11.0839   60.7857  -37.8442 H   0  0  0  0  0  0  0  0  0  0  0  0
   12.0370   59.7458  -36.9206 H   0  0  0  0  0  0  0  0  0  0  0  0
   13.8483   62.9900  -34.2602 H   0  0  0  0  0  0  0  0  0  0  0  0
   14.7806   61.9678  -35.3275 H   0  0  0  0  0  0  0  0  0  0  0  0
   13.2693   61.3921  -34.6660 H   0  0  0  0  0  0  0  0  0  0  0  0
  1  2  1  0  0  0  0
  1  3  4  0  0  0  0
  1  7  4  0  0  0  0
  2 21  1  0  0  0  0
  3  4  4  0  0  0  0
  3 22  1  0  0  0  0
  4  5  4  0  0  0  0
  4  8  4  0  0  0  0
  5  6  4  0  0  0  0
  5 11  4  0  0  0  0
  6  7  4  0  0  0  0
  6 23  1  0  0  0  0
  7 24  1  0  0  0  0
  8  9  4  0  0  0  0
  8 25  1  0  0  0  0
  9 10  4  0  0  0  0
  9 26  1  0  0  0  0
 10 11  4  0  0  0  0
 10 12  1  0  0  0  0
 11 15  1  0  0  0  0
 12 13  1  0  0  0  0
 12 16  1  0  0  0  0
 12 27  1  6  0  0  0
 13 14  1  0  0  0  0
 13 18  1  0  0  0  0
 13 20  1  1  0  0  0
 14 15  1  0  0  0  0
 14 28  1  0  0  0  0
 14 29  1  0  0  0  0
 15 30  1  0  0  0  0
 15 31  1  0  0  0  0
 16 17  1  0  0  0  0
 16 32  1  0  0  0  0
 16 33  1  0  0  0  0
 17 18  1  0  0  0  0
 17 34  1  0  0  0  0
 17 35  1  0  0  0  0
 18 19  2  0  0  0  0
 20 36  1  0  0  0  0
 20 37  1  0  0  0  0
 20 38  1  0  0  0  0
M  END
